Version 4
SHEET 1 1356 752
WIRE 720 -640 -528 -640
WIRE -2096 -368 -2096 -384
WIRE -1888 -368 -1888 -384
WIRE -304 -272 -304 -416
WIRE 80 -272 80 -416
WIRE -192 -256 -256 -256
WIRE 32 -256 -192 -256
WIRE 512 -128 512 -336
WIRE 80 -112 80 -176
WIRE 464 -112 80 -112
WIRE -304 -96 -304 -176
WIRE -192 -96 -192 -256
WIRE -192 -96 -304 -96
WIRE -304 16 -304 -96
WIRE 80 16 80 -112
WIRE -944 64 -944 -400
WIRE -528 96 -528 -640
WIRE -352 96 -528 96
WIRE 240 96 128 96
WIRE 240 144 240 96
WIRE 512 176 512 -32
WIRE 624 176 512 176
WIRE 720 176 720 -640
WIRE 720 176 624 176
WIRE -304 192 -304 112
WIRE -112 192 -304 192
WIRE 80 192 80 112
WIRE 80 192 -112 192
WIRE 240 256 240 224
WIRE -944 320 -944 144
WIRE -848 320 -944 320
WIRE -944 352 -944 320
WIRE -112 352 -112 192
WIRE 512 368 512 176
WIRE -848 432 -848 320
WIRE -848 432 -896 432
WIRE -176 432 -848 432
WIRE -160 432 -176 432
WIRE -176 496 -176 432
WIRE 464 496 464 448
WIRE 464 496 -176 496
WIRE -944 576 -944 448
WIRE -112 576 -112 448
WIRE -112 576 -944 576
WIRE 512 576 512 464
WIRE 512 576 -112 576
WIRE -112 640 -112 576
FLAG -1888 -304 0
FLAG -1888 -384 VDD
FLAG -944 -400 VDD
FLAG 512 -336 VDD
FLAG -304 -416 VDD
FLAG 80 -416 VDD
FLAG -112 640 0
FLAG -1696 -304 0
FLAG -2272 -304 0
FLAG -1696 -384 In1
FLAG -2272 -384 In2
FLAG -2096 -304 0
FLAG -2096 -384 VDV
FLAG 240 256 In1
FLAG 624 176 Out
DATAFLAG 512 176 "round($*100)/100"
DATAFLAG 304 -112 "round($*100)/100"
DATAFLAG -864 320 "round($*100)/100"
DATAFLAG 224 96 "round($*100)/100"
DATAFLAG 384 496 "round($*100)/100"
DATAFLAG 0 -256 "round($*100)/100"
DATAFLAG -304 -96 "round($*100)/100"
DATAFLAG -112 192 "round($*100)/100"
DATAFLAG -528 96 "round($*100)/100"
SYMBOL voltage -1888 -400 R0
WINDOW 123 0 0 Left 0
WINDOW 39 24 44 Left 2
SYMATTR InstName V1
SYMATTR Value 5
SYMBOL voltage -1696 -400 R0
WINDOW 123 0 0 Left 0
WINDOW 39 35 39 Left 2
SYMATTR InstName V2
SYMATTR Value 5
SYMBOL voltage -2272 -400 R0
WINDOW 123 21 122 Left 2
WINDOW 39 21 150 Left 2
SYMATTR Value2 AC 1
SYMATTR SpiceLine Rser=5k
SYMATTR InstName V3
SYMATTR Value 2.5
SYMBOL voltage -2096 -400 R0
WINDOW 123 0 0 Left 0
WINDOW 39 41 44 Left 2
SYMATTR SpiceLine Rser=5K
SYMATTR InstName V4
SYMATTR Value 2.5
SYMBOL AutoGenerated\\2N7000 -352 16 R0
SYMATTR InstName U1
SYMBOL AutoGenerated\\2N7000 128 16 M0
SYMATTR InstName U2
SYMBOL AutoGenerated\\BS250 -256 -176 R180
SYMATTR InstName U3
SYMBOL AutoGenerated\\BS250 32 -176 M180
SYMATTR InstName U4
SYMBOL AutoGenerated\\2N7000 -160 352 R0
SYMATTR InstName U5
SYMBOL AutoGenerated\\BS250 464 -32 M180
SYMATTR InstName U6
SYMBOL AutoGenerated\\2N7000 464 368 R0
SYMATTR InstName U7
SYMBOL AutoGenerated\\2N7000 -896 352 M0
SYMATTR InstName U8
SYMBOL res -960 48 R0
SYMATTR InstName R1
SYMATTR Value 5k
SYMBOL res 224 128 R0
SYMATTR InstName R2
SYMATTR Value 50K
TEXT -1816 -112 Left 2 !;ac dec 10 1 10Meg
TEXT -1800 -72 Left 2 !.tran 10m
